95
cyclohexylimine triBIP neutral optimized
 C                  1.68332700    0.32512900    0.81176600
 C                  0.58234300    1.15960600    0.50527000
 C                  0.77553300    2.53544800    0.33935500
 C                  2.06927200    3.03211800    0.49009000
 C                  3.15229000    2.19523700    0.80319400
 C                  2.98853200    0.81385600    0.97444200
 C                 -0.18653500   -0.85555600    0.68633800
 H                 -0.05701700    3.18670000    0.10186900
 H                  2.24969300    4.09323700    0.36472700
 H                  4.13912700    2.63050500    0.90721600
 C                 -2.46880700   -1.77899700    0.50616800
 C                 -3.41522300   -2.82856300    0.52212800
 C                 -2.99795600   -4.14136200    0.76049700
 C                 -1.63721400   -4.35926800    0.97675100
 C                 -0.70496400   -3.31057000    0.95802000
 C                 -1.09813700   -1.98594700    0.72094700
 C                 -4.50213200   -0.98739900    0.09858900
 H                 -3.71010800   -4.95767500    0.77513500
 H                 -1.28383700   -5.36584100    1.16559100
 H                  0.34102000   -3.53320900    1.13075400
 N                 -0.57021500    0.39458300    0.43497600
 C                 -6.89273000   -0.56479900   -0.38980500
 C                 -5.57892000   -0.06460200   -0.21693800
 C                 -5.32433200    1.31181700   -0.35818400
 C                 -6.33712800    2.20065400   -0.68025500
 C                 -7.62916400    1.67052800   -0.86018900
 C                 -7.94679000    0.32182000   -0.72382700
 H                 -4.31419200    1.67066500   -0.21070300
 H                 -8.42281100    2.35815500   -1.11860300
 C                 -6.11022000    3.70695900   -0.84461000
 C                 -9.38222900   -0.18961300   -0.91876100
 O                 -7.15685700   -1.88160400   -0.24516500
 H                 -6.29887400   -2.34666000   -0.01685700
 N                 -3.18356100   -0.63495500    0.24093000
 N                 -4.67117300   -2.30149900    0.26730200
 H                 -2.73645900    0.27142700    0.15855900
 N                  1.16550600   -0.94257200    0.91675600
 H                  1.74070000   -1.75312400    1.11437900
 C                  4.06800400   -0.09375400    1.32549500
 N                  3.94401500   -1.41892600    1.38673500
 N                  5.33759000    0.32041300    1.65025100
 C                  7.40637100   -0.94268000    2.35688800
 C                  7.83884800   -2.25703700    2.56969400
 C                  6.98371500   -3.35733600    2.38081200
 C                  5.65664100   -3.19403500    1.98511400
 C                  5.19219900   -1.89019500    1.76861100
 C                  6.07280900   -0.79876100    1.94564900
 H                  8.86168400   -2.42466300    2.88996700
 H                  7.36689800   -4.35576700    2.55605900
 H                  4.99905900   -4.04493300    1.85380400
 H                  5.73269600    1.25167900    1.71895900
 C                  8.27501600    0.21464300    2.56347900
 H                  9.28952100   -0.00857100    2.90373200
 N                  7.85345100    1.40685300    2.35682100
 C                  8.74202900    2.55172200    2.54843000
 C                 10.12515100    2.27930700    3.14987100
 C                  8.87561600    3.28919600    1.20450300
 H                  8.20707800    3.22666600    3.23175100
 C                 10.90688900    3.58715300    3.32253100
 H                 10.68631400    1.60906800    2.48675200
 H                 10.02344200    1.76726900    4.11223200
 C                  9.67260200    4.58849000    1.35790200
 H                  9.38165800    2.62146900    0.49655200
 H                  7.87840000    3.48895500    0.80133200
 C                 11.04430900    4.33586100    1.99289700
 H                 11.89338000    3.37678200    3.74720000
 H                 10.38393900    4.22702800    4.04425100
 H                  9.78738100    5.07278300    0.38328100
 H                  9.10523200    5.28117000    1.99194900
 H                 11.57135100    5.28309100    2.14451700
 H                 11.65521700    3.73693600    1.30582500
 C                 -9.42503200   -1.21532900   -2.07110100
 H                 -8.75935700   -2.05582700   -1.87964800
 H                -10.44440600   -1.59518000   -2.18953200
 H                 -9.13042000   -0.74253200   -3.01240800
 C                 -6.46419700    4.11794500   -2.28854800
 H                 -7.50083800    3.86921800   -2.52901200
 H                 -6.33535400    5.19667700   -2.41832300
 H                 -5.81650000    3.60791600   -3.00669300
 C                 -9.88782900   -0.84192300    0.38555100
 H                -10.90906900   -1.20800700    0.24389600
 H                 -9.25740400   -1.67875200    0.68305300
 H                 -9.89913400   -0.10962700    1.19795800
 C                -10.34889400    0.95076400   -1.27503100
 H                -10.39220100    1.70730500   -0.48656900
 H                -10.06706500    1.44557500   -2.20829100
 H                -11.35406000    0.54161000   -1.40231700
 C                 -7.01872300    4.47517600    0.13683300
 H                 -6.87562700    5.55297100    0.01598100
 H                 -8.07510400    4.25631000   -0.03650100
 H                 -6.78272600    4.21194900    1.17129400
 C                 -4.65413700    4.10283600   -0.56284700
 H                 -4.36129200    3.84858400    0.45970600
 H                 -3.96119500    3.60896800   -1.24913800
 H                 -4.53708100    5.18221200   -0.68749600
